/*--------------------------------*- C++ -*----------------------------------*\
| =========                 |                                                 |
| \\      /  F ield         | OpenFOAM: The Open Source CFD Toolbox           |
|  \\    /   O peration     | Version:  5                                     |
|   \\  /    A nd           | Web:      www.OpenFOAM.org                      |
|    \\/     M anipulation  |                                                 |
\*---------------------------------------------------------------------------*/
FoamFile
{
    version     2.0;
    format      ascii;
    class       dictionary;
    location    "system";
    object      dynamicMeshDict;
}

// * * * * * * * * * * * * * * * * * * * * * * * * * * * * * * * * * * * * * //

dynamicFvMesh dynamicMotionSolverFvMesh;

motionSolverLibs ("libfvMotionSolvers.so");

solver displacementLaplacian;
//motionSolver displacementLaplacian;
//motionSolver displacementSBRStress;
//motionSolver velocityComponentLaplacian z;

// diffusivity  uniform;
// diffusivity  directional (1 200 0);
// diffusivity  motionDirectional (1 1000 0);
// diffusivity  file motionDiffusivity;
// diffusivity  quadratic inverseDistance 1(lower);
// diffusivity  inverseDistance 1(lower);
// diffusivity  exponential 0.1 inverseDistance 1(lower);
// diffusivity  inverseDistance 2(lower upper);
   diffusivity  quadratic inverseDistance 2(lower upper);

displacementLaplacianCoeffs
{
    diffusivity quadratic inverseDistance 2(lower upper);
}

// ************************************************************************* //
